LAMMPS (15 Jun 2023)
# Checking the thermodynamic properties of LJ fluid

variable        seed equal 1
variable        w index 10      # Warmup Timesteps
variable        t index 50000	# Main Run Timesteps
variable        m index 100       # Main Run Timestep Multiplier
variable        dt equal 0.01

# model parameters
variable        cutoff equal 4.0

# thermodynamics
variable        targetP equal 0.064068
# variable        targetP equal 0.06
variable        targetT equal 1.1476
variable        targetRho equal 0.589
# box
variable L equal 15.0
variable hL equal $L*0.5
variable hL equal 15*0.5
variable N equal floor(15*15*15*0.589)
# variable        p index 0       # Use Power Measurement

variable	x index 4
variable	y index 2
variable	z index 2
variable        rr equal floor($t*$m)
variable        rr equal floor(50000*$m)
variable        rr equal floor(50000*100)

units lj
atom_style	   atomic

region      box block -7.5 7.5 -7.5 7.5 -7.5 7.5
create_box 1 box
Created orthogonal box = (-7.5 -7.5 -7.5) to (7.5 7.5 7.5)

create_atoms 1 random 1987 1 box
Created 1987 atoms

pair_style lj/cut 4
pair_coeff * * 1.0 1.0
pair_modify shift no

mass		1 1.0

neighbor	0.3 bin
neigh_modify	every 1 delay 4

minimize 1.0e-4 1.0e-6 100 1000
Generated 0 of 0 mixed pair_coeff terms from geometric mixing rule
Step          Temp          E_pair         E_mol          TotEng         Press
0   0              7.4119851e+12  0              7.4119851e+12  1.7454951e+13
Loop time of 0.341646 on 4 procs for 100 steps with 1987 atoms

Minimization stats:
  Stopping criterion = max iterations
  Energy initial, next-to-last, final =
  Force two-norm initial, final = 4.23237e+18 98.144197
  Force max component initial, final = 2.8096384e+18 22.109051
  Final line search alpha, max atom move = 0.005839568 0.12910731
  Iterations, force evaluations = 100 187

minimize 0.0 1.0e-8 1000 100000
Generated 0 of 0 mixed pair_coeff terms from geometric mixing rule
Step          Temp          E_pair         E_mol          TotEng         Press
100   0             -5.8396253      0             -5.8396253     -1.2534658
Loop time of 4.07897 on 4 procs for 1000 steps with 1987 atoms

Minimization stats:
  Stopping criterion = max iterations
  Energy initial, next-to-last, final =
  Force two-norm initial, final = 98.144197 12.87507
  Force max component initial, final = 22.109051 3.1717946
  Final line search alpha, max atom move = 0.020458683 0.064890741
  Iterations, force evaluations = 1000 1999

# NPT simulation
reset_timestep	0
timestep 0.01
velocity	all zero linear

thermo_style custom step pe etotal vol temp press density
thermo_modify	norm yes

# output
output-npt-larger-T1.1476-P0.064068.csv
fix extra all print 100 "$(step),$(temp),$(press),$(density)" file output-npt-larger-T1.1476-P0.064068.csv screen no title "step,temperature,pressure,density"

thermo		100

dump mydump all netcdf 1000 tj-lj-P0.064068-T1.1476.netcdf  type x y z

variable dump_time  equal floor(0.01*100)
fix		1 all npt temp 1.1476 1.1476 1 iso 0.064068 0.064068 1
run		5000000
Generated 0 of 0 mixed pair_coeff terms from geometric mixing rule
Step         PotEng         TotEng         Volume          Temp          Press         Density
0  -6.7680057     -6.7680057      3375           0             -0.50756576     0.58874074
Averages over the last 1617 of 3234 rows, steps 161700 to 323300:
PotEng TotEng Volume Temp Press Density
-3.80098 -2.08011 3550.28 1.14782 0.0656315 0.559933
