LAMMPS (15 Jun 2023)
# Coarse-grain water simulation using Stillinger-Weber

variable        N index on      # Newton Setting
variable        w index 10      # Warmup Timesteps
variable        t index 50000	# Main Run Timesteps
variable        m index 1       # Main Run Timestep Multiplier
variable        n index 0       # Use NUMA Mapping for Multi-Node
# variable        p index 0       # Use Power Measurement

variable	x index 4
variable	y index 2
variable	z index 2
variable        rr equal floor($t*$m)
variable        rr equal floor(50000*$m)
variable        rr equal floor(50000*1)

newton          $N
newton          on
if "$n > 0"     then "processors * * * grid numa"

units		real
atom_style	atomic

# read_data	mW_32k_cube.data
# read_data	onlyWater.start
read_data	mW.start
Reading data file ...
  orthogonal box = (-10 -10 -10) to (10 10 10)
  reading atoms ...
  270 atoms

# create amphiphile

# create_atoms 2 single -0.5 0 0
# create_atoms 3 single 0.5 0 0

reset_timestep	0

# pair_style hybrid sw threebody on lj/cut 6.0
# pair_coeff	* * sw mW.sw mW NULL
# pair_coeff 2 2 lj/cut 3.5 5.0

variable solute_diam equal 3.0

pair_style hybrid sw threebody on morse/smooth/linear 6.0
pair_coeff	* * sw mW.sw mW NULL NULL
Reading sw potential file mW.sw with DATE: 2007-06-11
pair_coeff 1 2 morse/smooth/linear  2.5 5.0 3 6.0
pair_coeff 1 3 morse/smooth/linear  2.5 5.0 3 3

# unimportant (2 and 3 do not move)
pair_coeff 2 2 morse/smooth/linear  2.5 5.0 3 3
pair_coeff 3 3 morse/smooth/linear  2.5 5.0 3 3
pair_coeff 2 3 morse/smooth/linear  2.5 5.0 3 3

mass		1 18.015 #g/mol
mass		2 18.015 #g/mol
mass		3 18.015 #g/mol

group		mW type 1
268 atoms in group mW
group		a2 type 2
1 atoms in group a2
group		a3 type 3
1 atoms in group a3

neighbor	2 bin #Angstroms
neigh_modify	every 1 delay 4

fix freeze2 a2 setforce 0.0 0.0 0.0
fix freeze3 a3 setforce 0.0 0.0 0.0
velocity	mW zero linear
set group a2 vx 0.0 vy 0.0 vz 0.0
Setting atom values ...
  1 settings made for vx
  1 settings made for vy
  1 settings made for vz
set group a3 vx 0.0 vy 0.0 vz 0.0
Setting atom values ...
  1 settings made for vx
  1 settings made for vy
  1 settings made for vz

fix		1 all nvt temp 300.0 300.0 1000.0

# fix		1 all npt temp 300.0 300.0 1000.0 iso 0.0 0.0 1000000.0

# timestep	10 #femtoseconds
timestep	5.0

thermo_modify	norm yes

thermo		100

dump mydump all atom 1000 tj-amphi.atom
minimize 1.0e-4 1.0e-6 100 1000
Step          Temp          E_pair         E_mol          TotEng         Press
0   0              97106261       0              97106261       5.1890861e+11
Loop time of 0.0213967 on 4 procs for 44 steps with 270 atoms

Minimization stats:
  Stopping criterion = energy tolerance
  Energy initial, next-to-last, final =
  Force two-norm initial, final = 2.6216541e+11 16.851664
  Force max component initial, final = 1.6655073e+11 8.0507424
  Final line search alpha, max atom move = 0.014135048 0.11379763
  Iterations, force evaluations = 44 44

minimize 0.0 1.0e-8 1000 100000
Step          Temp          E_pair         E_mol          TotEng         Press
44   0              190.47972      0              190.47972      3121851.3
Averages over the last 6 of 12 rows, steps 600 to 1044:
Temp E_pair E_mol TotEng Press
0 189.908 0 189.908 3.12445e+06
Loop time of 0.781254 on 4 procs for 1000 steps with 270 atoms

Minimization stats:
  Stopping criterion = max iterations
  Energy initial, next-to-last, final =
  Force two-norm initial, final = 16.851664 0.00077201133
  Force max component initial, final = 8.0507424 0.00034754281
  Final line search alpha, max atom move = 1 0.00034754281
  Iterations, force evaluations = 1000 1975

# if "$p > 0"     then "run_style verlet/power"

# if "$w > 0"     then "run $w"
run		50000
Step          Temp          E_pair         E_mol          TotEng         Press
1044   0              189.90694      0              189.90694      3124426.2
Averages over the last 251 of 502 rows, steps 26100 to 51044:
Temp E_pair E_mol TotEng Press
298.829 191.148 0 192.035 3.12567e+06
Loop time of 17.3665 on 4 procs for 50000 steps with 270 atoms

unfix 1
fix		1 all npt temp 300.0 300.0 1000.0 iso 0.0 0.0 1000.0

run		50000
Step          Temp          E_pair         E_mol          TotEng         Press          Volume
51044   300.74644      191.19834      0              192.09149      3126172.5      8000
Averages over the last 119 of 238 rows, steps 62900 to 74700:
Temp E_pair E_mol TotEng Press Volume
300.119 -9.26497 0 -8.37369 7.94936 22347.3
