LAMMPS (7 Jan 2022)
# Checking the thermodynamic properties of LJ fluid

variable        seed equal 1
variable        w index 10      # Warmup Timesteps
variable        dt equal 0.005

# model parameters
variable        ljcutoff equal 4.0
variable        solute_radius equal 4.0

# thermodynamics
variable        targetP equal 0.064068
# variable        targetP equal 0.06
variable        targetT equal 1.1476
variable        targetRho equal 0.588
# box
variable hL equal $L*0.5
variable hL equal 30*0.5
variable N equal floor(30*30*30*0.588)
# variable        p index 0       # Use Power Measurement

variable        equilibration equal 50000
variable        production equal 20000000

units lj
atom_style	   atomic

region      box block -15 15 -15 15 -15 15
# slightly larger to accomodate the liquid later

create_box 2 box
Created orthogonal box = (-15 -15 -15) to (15 15 15)

region      liquid_region sphere 0.0 0.0 0.0 6.0 side out

create_atoms 1 random 15876 1 liquid_region
Created 15876 atoms
create_atoms 2 single 0.0 0.0 0.0
Created 1 atoms

pair_style  hybrid lj/cut 4 morse/smooth/linear 4
pair_coeff 1 1 lj/cut 1.0 1.0
pair_coeff 1 2 morse/smooth/linear 2. 5.0 4 4
# not needed now...
pair_coeff 2 2 morse/smooth/linear 2. 5.0 4 4
# pair_modify shift yes tail no

# pair_modify tail yes

mass		1 1.0
mass		2 1.0

group		solvent type 1
15876 atoms in group solvent
group		solute type 2
1 atoms in group solute

fix freeze solute setforce 0.0 0.0 0.0
set group solute vx 0.0 vy 0.0 vz 0.0
Setting atom values ...
  1 settings made for vx
  1 settings made for vy
  1 settings made for vz

neighbor	0.3 bin
neigh_modify every 1  #delay 0 check no

minimize 1.0e-4 1.0e-6 100 1000
  generated 0 of 1 mixed pair_coeff terms from geometric mixing rule
  update every 1 steps, delay 0 steps, check yes
Step Temp E_pair E_mol TotEng Press
0            0 6.9293389e+15            0 6.9293389e+15 1.6298832e+16
Loop time of 0.500721 on 16 procs for 100 steps with 15877 atoms

Minimization stats:
  Stopping criterion = max iterations
  Energy initial, next-to-last, final =
  Force two-norm initial, final = 7.7654251e+22 186.38009
  Force max component initial, final = 5.3101647e+22 50.867801
  Final line search alpha, max atom move = 0.0025741256 0.13094011
  Iterations, force evaluations = 100 159

# NPT simulation
reset_timestep	0
timestep 0.005
# velocity  all create 1. 4321
# velocity	all zero linear

# compute allperatom all stress/atom NULL
# compute allp all reduce sum c_allperatom[1] c_allperatom[2] c_allperatom[3]
# variable allpress equal -(c_allp[1]+c_allp[2]+c_allp[3])/(3*vol)

thermo_style custom step pe etotal vol temp press density vol
# thermo_modify	norm yes

# output
testBinning//output.csv
testBinning//tj.xyz

thermo		1000

variable dump_time  equal floor(0.005*100)

fix		1 all npt temp 1.1476 1.1476 0.5 iso 0.064068 0.064068 1

fix extra all print 1000 "$(step),$(temp),$(press),$(density),$(vol)" file testBinning//output.csv screen no title "step,temperature,pressure,density,volume"

# construct chunks for 3d binning
region     local  block -15 15 -15 15 -15 15

# compute chunks      all chunk/atom bin/3d x lower 0.25 y lower 0.25 z lower 0.25 region local
# variable counter atom 1
# compute n1      all  reduce/chunk chunks sum v_counter
# compute n1a     all  chunk/spread/atom chunks c_n1
# # compute n2      all  reduce/chunk chunks sum c_n1a
# # compute n2a     all  chunk/spread/atom chunks c_n2

# # fix ID group-ID ave/chunk Nevery Nrepeat Nfreq chunkID value1 value2 ... keyword args ...
# fix ave all ave/chunk 1000 1 1000 chunks c_n1a  ave running file chucnk.profile overwrite

# dump_modify mydump first yes

  generated 0 of 1 mixed pair_coeff terms from geometric mixing rule
Step PotEng TotEng Volume Temp Press Density Volume
0   -5.2562454   -5.2562454        27000            0   -2.0380644   0.58803704        27000
Loop time of 14.5505 on 16 procs for 6000 steps with 15877 atoms
